modelo_opendss/linhas_mt.dss
new line.52681792 phases=1 bus1=78864605002188.1 bus2=78864595002188.1
~ r1=1.551 x1=0.47 length=0.105392 units=km normamps=125.0
new line.52681793 phases=1 bus1=78864595002188.1 bus2=78864585002188.1
~ r1=1.551 x1=0.47 length=0.063396 units=km normamps=125.0
new line.52681794 phases=1 bus1=78864615002188.1 bus2=78864605002188.1
~ r1=1.551 x1=0.47 length=0.100205 units=km normamps=125.0
new line.52681795 phases=1 bus1=78864625002188.1 bus2=78864615002188.1
~ r1=1.551 x1=0.47 length=0.125236 units=km normamps=125.0
new line.52681796 phases=1 bus1=78864635002188.1 bus2=78864625002188.1
~ r1=1.551 x1=0.47 length=0.007209 units=km normamps=125.0
new line.52681797 phases=1 bus1=78864645002188.1 bus2=78864585002188B.1
~ r1=2.469 x1=0.49 length=0.200117 units=km normamps=105.0
new line.52681798 phases=1 bus1=78864655002188.1 bus2=78864645002188.1
~ r1=2.469 x1=0.49 length=0.253259 units=km normamps=105.0
new line.52681799 phases=1 bus1=78864665002188.1 bus2=78864655002188.1
~ r1=2.469 x1=0.49 length=0.157273 units=km normamps=105.0
new line.52681800 phases=1 bus1=78864675002188.1 bus2=78864665002188.1
~ r1=2.469 x1=0.49 length=0.184364 units=km normamps=105.0
new line.52773432 phases=3 bus1=79659305002412.1.2.3 bus2=79659295002412.1.2.3
~ r1=0.975 x1=0.47 length=0.007341 units=km normamps=152.0
new line.52873519 phases=3 bus1=80437115001990.1.2.3 bus2=80434915001990.1.2.3
~ r1=1.551 x1=0.49 length=0.045787 units=km normamps=114.0
new line.52873520 phases=3 bus1=80437125001990.1.2.3 bus2=80437115001990.1.2.3
~ r1=1.551 x1=0.49 length=0.041148 units=km normamps=114.0
new line.52873521 phases=3 bus1=80435835001990.1.2.3 bus2=80437125001990.1.2.3
~ r1=1.551 x1=0.49 length=0.032481 units=km normamps=114.0
new line.52873522 phases=3 bus1=80435845001990.1.2.3 bus2=80435835001990.1.2.3
~ r1=1.551 x1=0.49 length=0.031157 units=km normamps=114.0
new line.52873523 phases=3 bus1=80435185001990.1.2.3 bus2=80435845001990.1.2.3
~ r1=1.551 x1=0.49 length=0.025186 units=km normamps=114.0
new line.52873524 phases=3 bus1=80435855001990.1.2.3 bus2=80437115001990.1.2.3
~ r1=1.551 x1=0.49 length=0.021336 units=km normamps=114.0
new line.52873525 phases=3 bus1=80435865001990.1.2.3 bus2=80435855001990.1.2.3
~ r1=1.551 x1=0.49 length=0.037048 units=km normamps=114.0
new line.52873526 phases=3 bus1=80434915001990.1.2.3 bus2=80434905001990.1.2.3
~ r1=1.551 x1=0.49 length=0.033868 units=km normamps=114.0
new line.52873527 phases=3 bus1=80434905001990.1.2.3 bus2=80434675001990.1.2.3
~ r1=1.551 x1=0.49 length=0.042527 units=km normamps=114.0
new line.52873528 phases=3 bus1=80434895001990.1.2.3 bus2=80434925001990.1.2.3
~ r1=0.975 x1=0.47 length=0.033495 units=km normamps=152.0
new line.52873529 phases=3 bus1=80434925001990.1.2.3 bus2=80434935001990.1.2.3
~ r1=0.975 x1=0.47 length=0.02651 units=km normamps=152.0
new line.52873530 phases=3 bus1=80434935001990.1.2.3 bus2=80434495001990.1.2.3
~ r1=0.975 x1=0.47 length=0.034861 units=km normamps=152.0
new line.52873531 phases=3 bus1=80434415001990.1.2.3 bus2=95203995001990.1.2.3
~ r1=0.195 x1=0.4 length=0.006334 units=km normamps=419.0
new line.52873532 phases=3 bus1=80435435001990.1.2.3 bus2=80435425001990.1.2.3
~ r1=0.188 x1=0.26 length=0.053788 units=km normamps=525.0
new line.52873533 phases=3 bus1=80435425001990.1.2.3 bus2=80435415001990.1.2.3
~ r1=0.188 x1=0.26 length=0.024584 units=km normamps=525.0
new line.52873534 phases=3 bus1=80434325001990.1.2.3 bus2=80434075001990.1.2.3
~ r1=0.195 x1=0.4 length=0.028272 units=km normamps=419.0
new line.52873535 phases=3 bus1=80434335001990.1.2.3 bus2=80434325001990.1.2.3
~ r1=0.195 x1=0.4 length=0.034282 units=km normamps=419.0
new line.52873536 phases=3 bus1=80434425001990.1.2.3 bus2=80434415001990.1.2.3
~ r1=0.195 x1=0.4 length=0.016487 units=km normamps=419.0
new line.52873537 phases=3 bus1=80434445001990.1.2.3 bus2=80434425001990.1.2.3
~ r1=0.195 x1=0.4 length=0.037501 units=km normamps=419.0
new line.52873538 phases=3 bus1=80434435001990.1.2.3 bus2=80434445001990.1.2.3
~ r1=0.195 x1=0.4 length=0.013822 units=km normamps=419.0
new line.52873539 phases=3 bus1=80434445001990.1.2.3 bus2=80434455001990.1.2.3
~ r1=0.195 x1=0.4 length=0.015098 units=km normamps=419.0
new line.52873540 phases=3 bus1=80434455001990.1.2.3 bus2=80434465001990.1.2.3
~ r1=0.195 x1=0.4 length=0.032738 units=km normamps=419.0
new line.52873541 phases=3 bus1=80434465001990.1.2.3 bus2=80434475001990.1.2.3
~ r1=0.195 x1=0.4 length=0.037506 units=km normamps=419.0
new line.52873542 phases=3 bus1=80434475001990.1.2.3 bus2=80434335001990.1.2.3
~ r1=0.195 x1=0.4 length=0.043683 units=km normamps=419.0
new line.52873543 phases=3 bus1=80434485001990.1.2.3 bus2=80434435001990B.1.2.3
~ r1=1.551 x1=0.49 length=0.024426 units=km normamps=114.0
new line.52873544 phases=3 bus1=80434495001990.1.2.3 bus2=80434485001990.1.2.3
~ r1=1.551 x1=0.49 length=0.026821 units=km normamps=114.0
new line.52873545 phases=3 bus1=80434525001990.1.2.3 bus2=80434445001990.1.2.3
~ r1=0.195 x1=0.4 length=0.023143 units=km normamps=419.0
new line.52873546 phases=3 bus1=80433635001990.1.2.3 bus2=80433615001990.1.2.3
~ r1=0.195 x1=0.4 length=0.063577 units=km normamps=419.0
new line.52873547 phases=3 bus1=80433635001990.1.2.3 bus2=80433695001990.1.2.3
~ r1=0.195 x1=0.4 length=0.027913 units=km normamps=419.0
new line.52873548 phases=3 bus1=80434895001990.1.2.3 bus2=80434675001990.1.2.3
~ r1=0.975 x1=0.47 length=0.030908 units=km normamps=152.0
new line.52873549 phases=3 bus1=80433695001990.1.2.3 bus2=80433705001990.1.2.3
~ r1=0.195 x1=0.4 length=0.034359 units=km normamps=419.0
new line.52873550 phases=3 bus1=80433705001990.1.2.3 bus2=80433715001990.1.2.3
~ r1=0.195 x1=0.4 length=0.025564 units=km normamps=419.0
new line.52873551 phases=3 bus1=80433715001990.1.2.3 bus2=80433725001990.1.2.3
~ r1=0.195 x1=0.4 length=0.036816 units=km normamps=419.0
new line.52873552 phases=3 bus1=80433725001990.1.2.3 bus2=80433765001990.1.2.3
~ r1=0.195 x1=0.4 length=0.007444 units=km normamps=419.0
new line.52873553 phases=3 bus1=80433765001990.1.2.3 bus2=80433755001990.1.2.3
~ r1=0.195 x1=0.4 length=0.035322 units=km normamps=419.0
new line.52873554 phases=3 bus1=80433765001990.1.2.3 bus2=80433745001990.1.2.3
~ r1=0.195 x1=0.4 length=0.027533 units=km normamps=419.0
new line.52873555 phases=3 bus1=80433815001990.1.2.3 bus2=93432675001990.1.2.3
~ r1=0.195 x1=0.4 length=0.022211 units=km normamps=419.0
new line.52873557 phases=3 bus1=80433815001990B.1.2.3 bus2=80433845001990.1.2.3
~ r1=1.551 x1=0.49 length=0.028612 units=km normamps=114.0
new line.52873558 phases=3 bus1=80433985001990.1.2.3 bus2=80433995001990.1.2.3
~ r1=0.975 x1=0.47 length=0.045404 units=km normamps=152.0
new line.52873559 phases=3 bus1=80433995001990.1.2.3 bus2=80434005001990.1.2.3
~ r1=0.975 x1=0.47 length=0.026841 units=km normamps=152.0
new line.52873560 phases=3 bus1=80434015001990.1.2.3 bus2=80433985001990.1.2.3
~ r1=0.975 x1=0.47 length=0.030351 units=km normamps=152.0
new line.52873561 phases=3 bus1=80434025001990B.1.2.3 bus2=80434015001990.1.2.3
~ r1=0.975 x1=0.47 length=0.033744 units=km normamps=152.0
new line.52873562 phases=3 bus1=80435135001990.1.2.3 bus2=80435125001990.1.2.3
~ r1=1.551 x1=0.49 length=0.023928 units=km normamps=114.0
new line.52873563 phases=3 bus1=80435145001990.1.2.3 bus2=80435135001990.1.2.3
~ r1=1.551 x1=0.49 length=0.032092 units=km normamps=114.0
new line.52873564 phases=3 bus1=80435145001990.1.2.3 bus2=80435175001990.1.2.3
~ r1=1.551 x1=0.49 length=0.017493 units=km normamps=114.0
new line.52873565 phases=3 bus1=80435175001990.1.2.3 bus2=80435185001990.1.2.3
~ r1=1.551 x1=0.49 length=0.036524 units=km normamps=114.0
new line.52873566 phases=3 bus1=80434095001990.1.2.3 bus2=80434115001990.1.2.3
~ r1=0.195 x1=0.4 length=0.040739 units=km normamps=419.0
new line.52873567 phases=3 bus1=80433765001990.1.2.3 bus2=80433735001990.1.2.3
~ r1=0.195 x1=0.4 length=0.00595 units=km normamps=419.0
new line.52873568 phases=3 bus1=80434115001990.1.2.3 bus2=80433745001990.1.2.3
~ r1=0.195 x1=0.4 length=0.029777 units=km normamps=419.0
new line.52873569 phases=3 bus1=80434135001990.1.2.3 bus2=80434125001990.1.2.3
~ r1=1.551 x1=0.49 length=0.032727 units=km normamps=114.0
new line.52873570 phases=3 bus1=80434125001990.1.2.3 bus2=80434145001990.1.2.3
~ r1=1.551 x1=0.49 length=0.014461 units=km normamps=114.0
new line.52873571 phases=3 bus1=80434095001990.1.2.3 bus2=80434145001990.1.2.3
~ r1=0.195 x1=0.4 length=0.006467 units=km normamps=419.0
new line.52873572 phases=3 bus1=80434145001990.1.2.3 bus2=80434065001990.1.2.3
~ r1=0.195 x1=0.4 length=0.045935 units=km normamps=419.0
new line.52873573 phases=3 bus1=80434065001990.1.2.3 bus2=80434075001990.1.2.3
~ r1=0.195 x1=0.4 length=0.029102 units=km normamps=419.0
new line.52873574 phases=3 bus1=80434025001990.1.2.3 bus2=80434145001990.1.2.3
~ r1=1.551 x1=0.49 length=0.039893 units=km normamps=114.0
new line.52873575 phases=3 bus1=80434085001990.1.2.3 bus2=80434155001990.1.2.3
~ r1=1.551 x1=0.49 length=0.032855 units=km normamps=114.0
new line.52873576 phases=3 bus1=80434065001990B.1.2.3 bus2=80434085001990.1.2.3
~ r1=1.551 x1=0.49 length=0.011925 units=km normamps=114.0
new line.52873577 phases=3 bus1=80434175001990.1.2.3 bus2=80434135001990B.1.2.3
~ r1=1.551 x1=0.49 length=0.029725 units=km normamps=114.0
new line.52873578 phases=3 bus1=80434185001990.1.2.3 bus2=80434175001990.1.2.3
~ r1=1.551 x1=0.49 length=0.040953 units=km normamps=114.0
new line.52873579 phases=3 bus1=80434195001990.1.2.3 bus2=80434185001990.1.2.3
~ r1=1.551 x1=0.49 length=0.030682 units=km normamps=114.0
new line.52873580 phases=3 bus1=80434265001990.1.2.3 bus2=80434245001990.1.2.3
~ r1=0.975 x1=0.47 length=0.02922 units=km normamps=152.0
new line.52873581 phases=3 bus1=80434155001990.1.2.3 bus2=80434265001990.1.2.3
~ r1=1.551 x1=0.49 length=0.048103 units=km normamps=114.0
new line.52873582 phases=3 bus1=80435405001990.1.2.3 bus2=80435385001990.1.2.3
~ r1=0.195 x1=0.4 length=0.032204 units=km normamps=419.0
new line.52873583 phases=3 bus1=80435415001990.1.2.3 bus2=87229005001990.1.2.3
~ r1=0.188 x1=0.26 length=0.023492 units=km normamps=525.0
new line.52873584 phases=3 bus1=80435455001990.1.2.3 bus2=80435445001990.1.2.3
~ r1=0.195 x1=0.4 length=0.022704 units=km normamps=419.0
new line.52873585 phases=3 bus1=80435465001990.1.2.3 bus2=80435455001990.1.2.3
~ r1=0.195 x1=0.4 length=0.032738 units=km normamps=419.0
new line.52873586 phases=3 bus1=80435475001990.1.2.3 bus2=80435465001990.1.2.3
~ r1=0.195 x1=0.4 length=0.011658 units=km normamps=419.0
new line.52873587 phases=3 bus1=80435475001990.1.2.3 bus2=80435485001990.1.2.3
~ r1=0.195 x1=0.4 length=0.047134 units=km normamps=419.0
new line.52873588 phases=3 bus1=80435485001990.1.2.3 bus2=95330225001990.1.2.3
~ r1=0.195 x1=0.4 length=0.013375 units=km normamps=419.0
new line.52873589 phases=3 bus1=80435495001990.1.2.3 bus2=80435505001990.1.2.3
~ r1=0.195 x1=0.4 length=0.035903 units=km normamps=419.0
new line.52873590 phases=3 bus1=80435495001990.1.2.3 bus2=80435525001990.1.2.3
~ r1=0.195 x1=0.4 length=0.031314 units=km normamps=419.0
new line.52873591 phases=3 bus1=80435525001990.1.2.3 bus2=80435535001990.1.2.3
~ r1=0.195 x1=0.4 length=0.025848 units=km normamps=419.0
new line.52873592 phases=3 bus1=80435535001990.1.2.3 bus2=80433615001990.1.2.3
~ r1=0.195 x1=0.4 length=0.047113 units=km normamps=419.0
new line.52873593 phases=3 bus1=80435815001990.1.2.3 bus2=80435145001990.1.2.3
~ r1=0.975 x1=0.47 length=0.030396 units=km normamps=152.0
new line.52873594 phases=3 bus1=80435825001990.1.2.3 bus2=80435815001990.1.2.3
~ r1=0.975 x1=0.47 length=0.029654 units=km normamps=152.0
new line.52873595 phases=3 bus1=80437005001990.1.2.3 bus2=80435825001990.1.2.3
~ r1=0.975 x1=0.47 length=0.003836 units=km normamps=152.0
new line.52873596 phases=3 bus1=80438055001990.1.2.3 bus2=80439735001990.1.2.3
~ r1=1.551 x1=0.49 length=0.009701 units=km normamps=114.0
new line.52873597 phases=3 bus1=80438065001990.1.2.3 bus2=80439735001990.1.2.3
~ r1=1.551 x1=0.49 length=0.015098 units=km normamps=114.0
new line.52873598 phases=3 bus1=80438095001990.1.2.3 bus2=80439735001990.1.2.3
~ r1=1.551 x1=0.49 length=0.023719 units=km normamps=114.0
new line.52873599 phases=3 bus1=80439735001990.1.2.3 bus2=80438085001990.1.2.3
~ r1=1.551 x1=0.49 length=0.012305 units=km normamps=114.0
new line.52873600 phases=3 bus1=80436145001990.1.2.3 bus2=80439765001990.1.2.3
~ r1=0.195 x1=0.4 length=0.015874 units=km normamps=419.0
new line.52873601 phases=3 bus1=80439765001990.1.2.3 bus2=80436155001990.1.2.3
~ r1=0.195 x1=0.4 length=0.013908 units=km normamps=419.0
new line.52873602 phases=3 bus1=80439765001990.1.2.3 bus2=80439775001990.1.2.3
~ r1=0.195 x1=0.4 length=0.007993 units=km normamps=419.0
new line.52873603 phases=3 bus1=80438015001990.1.2.3 bus2=80437985001990.1.2.3
~ r1=1.551 x1=0.49 length=0.047082 units=km normamps=114.0
new line.52873604 phases=3 bus1=80436145001990.1.2.3 bus2=80436135001990.1.2.3
~ r1=0.195 x1=0.4 length=0.028068 units=km normamps=419.0
new line.52873605 phases=3 bus1=80436165001990.1.2.3 bus2=80436155001990.1.2.3
~ r1=0.195 x1=0.4 length=0.027285 units=km normamps=419.0
new line.52873606 phases=3 bus1=80436175001990B.1.2.3 bus2=80436165001990.1.2.3
~ r1=0.195 x1=0.4 length=0.01398 units=km normamps=419.0
new line.52873607 phases=3 bus1=80436225001990.1.2.3 bus2=80436215001990.1.2.3
~ r1=0.195 x1=0.4 length=0.028279 units=km normamps=419.0
new line.52873608 phases=3 bus1=80436235001990.1.2.3 bus2=80436225001990.1.2.3
~ r1=0.195 x1=0.4 length=0.01065 units=km normamps=419.0
new line.52873609 phases=3 bus1=80436245001990.1.2.3 bus2=80436225001990.1.2.3
~ r1=0.195 x1=0.4 length=0.01464 units=km normamps=419.0
new line.52873610 phases=3 bus1=80436255001990.1.2.3 bus2=80436245001990.1.2.3
~ r1=0.195 x1=0.4 length=0.028697 units=km normamps=419.0
new line.52873611 phases=3 bus1=80436265001990.1.2.3 bus2=80436245001990.1.2.3
~ r1=0.195 x1=0.4 length=0.010675 units=km normamps=419.0
new line.52873612 phases=3 bus1=80436275001990.1.2.3 bus2=80436265001990.1.2.3
~ r1=0.195 x1=0.4 length=0.030279 units=km normamps=419.0
new line.52873613 phases=3 bus1=80436285001990.1.2.3 bus2=80436275001990.1.2.3
~ r1=0.195 x1=0.4 length=0.036709 units=km normamps=419.0
new line.52873614 phases=3 bus1=80436295001990.1.2.3 bus2=80436285001990.1.2.3
~ r1=0.195 x1=0.4 length=0.033289 units=km normamps=419.0
new line.52873615 phases=3 bus1=80436135001990.1.2.3 bus2=80436295001990.1.2.3
~ r1=0.195 x1=0.4 length=0.035961 units=km normamps=419.0
new line.52873616 phases=3 bus1=80436315001990.1.2.3 bus2=80436135001990.1.2.3
~ r1=0.195 x1=0.4 length=0.023555 units=km normamps=419.0
new line.52873617 phases=3 bus1=80439175001990.1.2.3 bus2=80439165001990.1.2.3
~ r1=0.195 x1=0.4 length=0.025067 units=km normamps=419.0
new line.52873618 phases=3 bus1=80439185001990.1.2.3 bus2=80439175001990.1.2.3
~ r1=0.195 x1=0.4 length=0.033804 units=km normamps=419.0
new line.52873619 phases=3 bus1=80439195001990.1.2.3 bus2=80439185001990.1.2.3
~ r1=0.195 x1=0.4 length=0.041613 units=km normamps=419.0
new line.52873620 phases=3 bus1=80439205001990.1.2.3 bus2=80439195001990.1.2.3
~ r1=0.195 x1=0.4 length=0.033211 units=km normamps=419.0
new line.52873621 phases=3 bus1=80439245001990.1.2.3 bus2=80439205001990.1.2.3
~ r1=0.195 x1=0.4 length=0.040541 units=km normamps=419.0
new line.52873622 phases=3 bus1=80439255001990.1.2.3 bus2=80439245001990.1.2.3
~ r1=0.195 x1=0.4 length=0.035119 units=km normamps=419.0
new line.52873623 phases=3 bus1=80436335001990.1.2.3 bus2=80436285001990.1.2.3
~ r1=1.551 x1=0.49 length=0.023457 units=km normamps=114.0
new line.52873624 phases=3 bus1=80436395001990.1.2.3 bus2=80436215001990.1.2.3
~ r1=0.195 x1=0.4 length=0.040925 units=km normamps=419.0
new line.52873625 phases=3 bus1=80436395001990.1.2.3 bus2=80436385001990.1.2.3
~ r1=1.551 x1=0.49 length=0.022187 units=km normamps=114.0
new line.52873626 phases=3 bus1=80436545001990.1.2.3 bus2=80436535001990.1.2.3
~ r1=1.551 x1=0.49 length=0.035438 units=km normamps=114.0
new line.52873627 phases=3 bus1=80436555001990.1.2.3 bus2=80436545001990.1.2.3
~ r1=1.551 x1=0.49 length=0.034817 units=km normamps=114.0
new line.52873628 phases=3 bus1=80436565001990B.1.2.3 bus2=80436555001990.1.2.3
~ r1=1.551 x1=0.49 length=0.026163 units=km normamps=114.0
new line.52873629 phases=3 bus1=80436615001990B.1.2.3 bus2=80436155001990.1.2.3
~ r1=0.195 x1=0.4 length=0.032722 units=km normamps=419.0
new line.52873630 phases=3 bus1=80436625001990.1.2.3 bus2=80436615001990.1.2.3
~ r1=0.195 x1=0.4 length=0.025584 units=km normamps=419.0
new line.52873631 phases=3 bus1=80436635001990.1.2.3 bus2=80436625001990.1.2.3
~ r1=0.195 x1=0.4 length=0.026248 units=km normamps=419.0
new line.52873632 phases=3 bus1=80436655001990.1.2.3 bus2=80436635001990.1.2.3
~ r1=0.195 x1=0.4 length=0.028289 units=km normamps=419.0
new line.52873633 phases=3 bus1=80436585001990.1.2.3 bus2=80436655001990.1.2.3
~ r1=1.551 x1=0.49 length=0.03667 units=km normamps=114.0
new line.52873634 phases=3 bus1=80436665001990.1.2.3 bus2=80436655001990.1.2.3
~ r1=0.195 x1=0.4 length=0.023718 units=km normamps=419.0
new line.52873635 phases=3 bus1=80436675001990.1.2.3 bus2=80436665001990.1.2.3
~ r1=0.195 x1=0.4 length=0.024626 units=km normamps=419.0
new line.52873636 phases=3 bus1=80436685001990.1.2.3 bus2=80436675001990.1.2.3
~ r1=0.195 x1=0.4 length=0.021837 units=km normamps=419.0
new line.52873637 phases=3 bus1=80436685001990.1.2.3 bus2=80436565001990.1.2.3
~ r1=1.551 x1=0.49 length=0.035657 units=km normamps=114.0
new line.52873638 phases=3 bus1=80435905001990.1.2.3 bus2=80436685001990.1.2.3
~ r1=0.195 x1=0.4 length=0.027508 units=km normamps=419.0
new line.52873639 phases=3 bus1=80436725001990.1.2.3 bus2=80436715001990.1.2.3
~ r1=0.975 x1=0.47 length=0.025066 units=km normamps=152.0
new line.52873640 phases=3 bus1=80436745001990.1.2.3 bus2=80436725001990.1.2.3
~ r1=0.975 x1=0.47 length=0.024306 units=km normamps=152.0
new line.52873641 phases=3 bus1=80439265001990.1.2.3 bus2=80439255001990.1.2.3
~ r1=0.195 x1=0.4 length=0.037256 units=km normamps=419.0
new line.52873642 phases=3 bus1=80439275001990.1.2.3 bus2=80439265001990.1.2.3
~ r1=0.195 x1=0.4 length=0.03324 units=km normamps=419.0
new line.52873643 phases=3 bus1=80438795001990.1.2.3 bus2=80439275001990.1.2.3
~ r1=0.195 x1=0.4 length=0.032876 units=km normamps=419.0
new line.52873644 phases=3 bus1=80439345001990.1.2.3 bus2=80439335001990.1.2.3
~ r1=1.551 x1=0.49 length=0.032384 units=km normamps=114.0
new line.52873645 phases=3 bus1=80439345001990.1.2.3 bus2=80439165001990.1.2.3
~ r1=0.195 x1=0.4 length=0.037702 units=km normamps=419.0
new line.52873646 phases=3 bus1=80435985001990.1.2.3 bus2=80439345001990.1.2.3
~ r1=0.195 x1=0.4 length=0.027749 units=km normamps=419.0
new line.52873647 phases=3 bus1=80436755001990.1.2.3 bus2=80436745001990.1.2.3
~ r1=0.975 x1=0.47 length=0.036239 units=km normamps=152.0
new line.52873648 phases=3 bus1=80436765001990.1.2.3 bus2=80436755001990.1.2.3
~ r1=0.975 x1=0.47 length=0.007608 units=km normamps=152.0
new line.52873649 phases=3 bus1=80434005001990.1.2.3 bus2=80436755001990.1.2.3
~ r1=0.975 x1=0.47 length=0.023308 units=km normamps=152.0
new line.52873650 phases=3 bus1=80436825001990.1.2.3 bus2=80436815001990.1.2.3
~ r1=0.975 x1=0.47 length=0.023166 units=km normamps=152.0
new line.52873651 phases=3 bus1=80436975001990.1.2.3 bus2=80436815001990.1.2.3
~ r1=0.975 x1=0.47 length=0.032357 units=km normamps=152.0
new line.52873652 phases=3 bus1=80436985001990.1.2.3 bus2=80436975001990.1.2.3
~ r1=0.975 x1=0.47 length=0.024589 units=km normamps=152.0
new line.52873653 phases=3 bus1=80436995001990.1.2.3 bus2=80436985001990.1.2.3
~ r1=0.975 x1=0.47 length=0.031174 units=km normamps=152.0
new line.52873654 phases=3 bus1=80437785001990.1.2.3 bus2=80436995001990.1.2.3
~ r1=0.975 x1=0.47 length=0.010265 units=km normamps=152.0
new line.52873655 phases=3 bus1=80437795001990.1.2.3 bus2=80436995001990.1.2.3
~ r1=0.975 x1=0.47 length=0.029812 units=km normamps=152.0
new line.52873656 phases=3 bus1=80436745001990.1.2.3 bus2=80437795001990.1.2.3
~ r1=0.975 x1=0.47 length=0.008244 units=km normamps=152.0
new line.52873657 phases=3 bus1=80437805001990.1.2.3 bus2=80436635001990.1.2.3
~ r1=1.551 x1=0.49 length=0.039069 units=km normamps=114.0
new line.52873658 phases=3 bus1=80437815001990.1.2.3 bus2=80437805001990B.1.2.3
~ r1=1.551 x1=0.49 length=0.024804 units=km normamps=114.0
new line.52873659 phases=3 bus1=80437825001990.1.2.3 bus2=80437815001990.1.2.3
~ r1=1.551 x1=0.49 length=0.034593 units=km normamps=114.0
new line.52873660 phases=3 bus1=80436395001990.1.2.3 bus2=80437885001990.1.2.3
~ r1=0.195 x1=0.4 length=0.017141 units=km normamps=419.0
new line.52873661 phases=3 bus1=80437885001990.1.2.3 bus2=80437895001990.1.2.3
~ r1=0.195 x1=0.4 length=0.024306 units=km normamps=419.0
new line.52873662 phases=3 bus1=80437895001990.1.2.3 bus2=80437135001990.1.2.3
~ r1=0.195 x1=0.4 length=0.036476 units=km normamps=419.0
new line.52873663 phases=3 bus1=80437135001990.1.2.3 bus2=80437145001990.1.2.3
~ r1=0.195 x1=0.4 length=0.0401 units=km normamps=419.0
new line.52873665 phases=3 bus1=80437145001990.1.2.3 bus2=80437175001990.1.2.3
~ r1=0.195 x1=0.4 length=0.029336 units=km normamps=419.0
new line.52873666 phases=3 bus1=80437175001990.1.2.3 bus2=80437185001990.1.2.3
~ r1=0.195 x1=0.4 length=0.039942 units=km normamps=419.0
new line.52873667 phases=3 bus1=80437215001990.1.2.3 bus2=80437235001990.1.2.3
~ r1=0.975 x1=0.47 length=0.017023 units=km normamps=152.0
new line.52873668 phases=3 bus1=80437295001990.1.2.3 bus2=80437215001990.1.2.3
~ r1=0.975 x1=0.47 length=0.039932 units=km normamps=152.0
new line.52873669 phases=3 bus1=80437305001990.1.2.3 bus2=80437295001990.1.2.3
~ r1=0.975 x1=0.47 length=0.0377 units=km normamps=152.0
new line.52873670 phases=3 bus1=80437315001990.1.2.3 bus2=80437305001990.1.2.3
~ r1=0.975 x1=0.47 length=0.028282 units=km normamps=152.0
new line.52873671 phases=3 bus1=80437315001990.1.2.3 bus2=80437325001990.1.2.3
~ r1=0.975 x1=0.47 length=0.033292 units=km normamps=152.0
new line.52873672 phases=3 bus1=80437505001990.1.2.3 bus2=80437495001990.1.2.3
~ r1=0.975 x1=0.47 length=0.031796 units=km normamps=152.0
new line.52873673 phases=3 bus1=80437505001990.1.2.3 bus2=80437515001990.1.2.3
~ r1=0.975 x1=0.47 length=0.037945 units=km normamps=152.0
new line.52873674 phases=3 bus1=80437515001990.1.2.3 bus2=80437525001990.1.2.3
~ r1=0.975 x1=0.47 length=0.024068 units=km normamps=152.0
new line.52873675 phases=3 bus1=80437525001990.1.2.3 bus2=80437325001990.1.2.3
~ r1=0.975 x1=0.47 length=0.038928 units=km normamps=152.0
new line.52873676 phases=3 bus1=80437185001990.1.2.3 bus2=80437575001990.1.2.3
~ r1=0.195 x1=0.4 length=0.027289 units=km normamps=419.0
new line.52873677 phases=3 bus1=80437575001990B.1.2.3 bus2=80437585001990.1.2.3
~ r1=0.195 x1=0.4 length=0.031712 units=km normamps=419.0
new line.52873678 phases=3 bus1=80437585001990.1.2.3 bus2=80437595001990.1.2.3
~ r1=0.195 x1=0.4 length=0.02851 units=km normamps=419.0
new line.52873679 phases=3 bus1=80437595001990.1.2.3 bus2=80437615001990.1.2.3
~ r1=0.195 x1=0.4 length=0.031669 units=km normamps=419.0
new line.52873680 phases=3 bus1=80437625001990.1.2.3 bus2=80437615001990.1.2.3
~ r1=0.195 x1=0.4 length=0.020309 units=km normamps=419.0
new line.52873681 phases=3 bus1=80437615001990.1.2.3 bus2=80437635001990.1.2.3
~ r1=0.195 x1=0.4 length=0.034597 units=km normamps=419.0
new line.52873682 phases=3 bus1=80437635001990B.1.2.3 bus2=80437495001990.1.2.3
~ r1=0.975 x1=0.47 length=0.013648 units=km normamps=152.0
new line.52873683 phases=3 bus1=80437635001990.1.2.3 bus2=80437645001990.1.2.3
~ r1=0.195 x1=0.4 length=0.064368 units=km normamps=419.0
new line.52873684 phases=3 bus1=80437645001990.1.2.3 bus2=80437655001990.1.2.3
~ r1=0.195 x1=0.4 length=0.031573 units=km normamps=419.0
new line.52873685 phases=3 bus1=80437655001990.1.2.3 bus2=80437665001990.1.2.3
~ r1=0.195 x1=0.4 length=0.028738 units=km normamps=419.0
new line.52873686 phases=3 bus1=80437665001990.1.2.3 bus2=80437675001990.1.2.3
~ r1=0.195 x1=0.4 length=0.027292 units=km normamps=419.0
new line.52873687 phases=3 bus1=80437675001990.1.2.3 bus2=80437685001990.1.2.3
~ r1=0.195 x1=0.4 length=0.040019 units=km normamps=419.0
new line.52873688 phases=3 bus1=80437685001990.1.2.3 bus2=80437695001990.1.2.3
~ r1=0.195 x1=0.4 length=0.048754 units=km normamps=419.0
new line.52873689 phases=3 bus1=80439485001990.1.2.3 bus2=80439495001990.1.2.3
~ r1=1.551 x1=0.49 length=0.010262 units=km normamps=114.0
new line.52873690 phases=3 bus1=80439505001990.1.2.3 bus2=80439495001990.1.2.3
~ r1=1.551 x1=0.49 length=0.019903 units=km normamps=114.0
new line.52873691 phases=3 bus1=80439495001990.1.2.3 bus2=80439515001990.1.2.3
~ r1=1.551 x1=0.49 length=0.023335 units=km normamps=114.0
new line.52873692 phases=3 bus1=80439495001990.1.2.3 bus2=80439525001990.1.2.3
~ r1=1.551 x1=0.49 length=0.010491 units=km normamps=114.0
new line.52873693 phases=3 bus1=80439525001990.1.2.3 bus2=80439535001990.1.2.3
~ r1=1.551 x1=0.49 length=0.026381 units=km normamps=114.0
new line.52873694 phases=3 bus1=80439545001990.1.2.3 bus2=80439485001990.1.2.3
~ r1=1.551 x1=0.49 length=0.031805 units=km normamps=114.0
new line.52873695 phases=3 bus1=80437915001990.1.2.3 bus2=80439545001990.1.2.3
~ r1=1.551 x1=0.49 length=0.043391 units=km normamps=114.0
new line.52873696 phases=3 bus1=80437925001990.1.2.3 bus2=80437915001990.1.2.3
~ r1=1.551 x1=0.49 length=0.022978 units=km normamps=114.0
new line.52873697 phases=3 bus1=80437935001990.1.2.3 bus2=80437925001990.1.2.3
~ r1=1.551 x1=0.49 length=0.02791 units=km normamps=114.0
new line.52873698 phases=3 bus1=80437945001990.1.2.3 bus2=80437935001990.1.2.3
~ r1=1.551 x1=0.49 length=0.008244 units=km normamps=114.0
new line.52873699 phases=3 bus1=80439415001990.1.2.3 bus2=80437945001990.1.2.3
~ r1=1.551 x1=0.49 length=0.023316 units=km normamps=114.0
new line.52873700 phases=3 bus1=80437945001990.1.2.3 bus2=80437955001990.1.2.3
~ r1=1.551 x1=0.49 length=0.008857 units=km normamps=114.0
new line.52873701 phases=3 bus1=80437965001990.1.2.3 bus2=80437945001990.1.2.3
~ r1=1.551 x1=0.49 length=0.029486 units=km normamps=114.0
new line.52873702 phases=3 bus1=80437975001990.1.2.3 bus2=80437965001990.1.2.3
~ r1=1.551 x1=0.49 length=0.033176 units=km normamps=114.0
new line.52873703 phases=3 bus1=80437985001990.1.2.3 bus2=80437975001990.1.2.3
~ r1=1.551 x1=0.49 length=0.038288 units=km normamps=114.0
new line.52873704 phases=3 bus1=80438465001990.1.2.3 bus2=80438455001990.1.2.3
~ r1=1.551 x1=0.49 length=0.024918 units=km normamps=114.0
new line.52873705 phases=3 bus1=80438475001990.1.2.3 bus2=80438465001990.1.2.3
~ r1=1.551 x1=0.49 length=0.008574 units=km normamps=114.0
new line.52873706 phases=3 bus1=80438505001990.1.2.3 bus2=80438465001990.1.2.3
~ r1=1.551 x1=0.49 length=0.032914 units=km normamps=114.0
new line.52873707 phases=3 bus1=80438455001990.1.2.3 bus2=80438515001990.1.2.3
~ r1=1.551 x1=0.49 length=0.023517 units=km normamps=114.0
new line.52873708 phases=3 bus1=80438515001990.1.2.3 bus2=80438525001990.1.2.3
~ r1=1.551 x1=0.49 length=0.018626 units=km normamps=114.0
new line.52873709 phases=3 bus1=80438525001990.1.2.3 bus2=80438545001990.1.2.3
~ r1=1.551 x1=0.49 length=0.022855 units=km normamps=114.0
new line.52873710 phases=3 bus1=80438545001990.1.2.3 bus2=80437185001990B.1.2.3
~ r1=1.551 x1=0.49 length=0.042008 units=km normamps=114.0
new line.52873711 phases=3 bus1=80438565001990.1.2.3 bus2=80437175001990.1.2.3
~ r1=0.195 x1=0.4 length=0.031287 units=km normamps=419.0
new line.52873712 phases=3 bus1=80438025001990.1.2.3 bus2=80438015001990.1.2.3
~ r1=1.551 x1=0.49 length=0.041123 units=km normamps=114.0
new line.52873713 phases=3 bus1=80438035001990.1.2.3 bus2=80438025001990.1.2.3
~ r1=1.551 x1=0.49 length=0.007803 units=km normamps=114.0
new line.52873714 phases=3 bus1=80438045001990.1.2.3 bus2=80438025001990.1.2.3
~ r1=1.551 x1=0.49 length=0.040858 units=km normamps=114.0
new line.52873715 phases=3 bus1=80438055001990.1.2.3 bus2=80438045001990.1.2.3
~ r1=1.551 x1=0.49 length=0.026996 units=km normamps=114.0
new line.52873716 phases=3 bus1=80438075001990.1.2.3 bus2=80438065001990.1.2.3
~ r1=1.551 x1=0.49 length=0.007608 units=km normamps=114.0
new line.52873717 phases=3 bus1=80438095001990.1.2.3 bus2=80438105001990.1.2.3
~ r1=1.551 x1=0.49 length=0.028064 units=km normamps=114.0
new line.52873718 phases=3 bus1=80438105001990.1.2.3 bus2=80438115001990.1.2.3
~ r1=1.551 x1=0.49 length=0.031555 units=km normamps=114.0
new line.52873719 phases=3 bus1=80438115001990.1.2.3 bus2=80438125001990.1.2.3
~ r1=1.551 x1=0.49 length=0.052894 units=km normamps=114.0
new line.52873720 phases=3 bus1=80438125001990.1.2.3 bus2=80435965001990.1.2.3
~ r1=1.551 x1=0.49 length=0.0405 units=km normamps=114.0
new line.52873721 phases=3 bus1=80439535001990.1.2.3 bus2=80438285001990.1.2.3
~ r1=1.551 x1=0.49 length=0.041969 units=km normamps=114.0
new line.52873722 phases=3 bus1=80438285001990.1.2.3 bus2=80438295001990.1.2.3
~ r1=1.551 x1=0.49 length=0.03887 units=km normamps=114.0
new line.52873723 phases=3 bus1=80438295001990.1.2.3 bus2=80438305001990.1.2.3
~ r1=1.551 x1=0.49 length=0.037715 units=km normamps=114.0
new line.52873724 phases=3 bus1=80438305001990.1.2.3 bus2=80438315001990.1.2.3
~ r1=1.551 x1=0.49 length=0.033244 units=km normamps=114.0
new line.52873725 phases=3 bus1=80439515001990.1.2.3 bus2=80438425001990.1.2.3
~ r1=1.551 x1=0.49 length=0.038046 units=km normamps=114.0
new line.52873726 phases=3 bus1=80438425001990.1.2.3 bus2=80439605001990.1.2.3
~ r1=1.551 x1=0.49 length=0.021278 units=km normamps=114.0
new line.52873727 phases=3 bus1=80439605001990.1.2.3 bus2=80439625001990.1.2.3
~ r1=1.551 x1=0.49 length=0.028697 units=km normamps=114.0
new line.52873728 phases=3 bus1=80438695001990.1.2.3 bus2=80438685001990.1.2.3
~ r1=0.195 x1=0.4 length=0.030392 units=km normamps=419.0
new line.52873729 phases=3 bus1=80438705001990.1.2.3 bus2=80438695001990.1.2.3
~ r1=0.195 x1=0.4 length=0.03025 units=km normamps=419.0
new line.52873730 phases=3 bus1=80438715001990.1.2.3 bus2=80438705001990.1.2.3
~ r1=0.195 x1=0.4 length=0.030827 units=km normamps=419.0
new line.52873731 phases=3 bus1=80438725001990.1.2.3 bus2=80438685001990.1.2.3
~ r1=0.195 x1=0.4 length=0.039138 units=km normamps=419.0
new line.52873732 phases=3 bus1=80438735001990.1.2.3 bus2=80438725001990.1.2.3
~ r1=0.195 x1=0.4 length=0.041126 units=km normamps=419.0
new line.52873733 phases=3 bus1=80438745001990.1.2.3 bus2=80438735001990.1.2.3
~ r1=0.195 x1=0.4 length=0.03686 units=km normamps=419.0
new line.52873734 phases=3 bus1=80438755001990.1.2.3 bus2=80438745001990.1.2.3
~ r1=0.195 x1=0.4 length=0.036869 units=km normamps=419.0
new line.52873735 phases=3 bus1=80438765001990.1.2.3 bus2=80438755001990.1.2.3
~ r1=0.195 x1=0.4 length=0.031765 units=km normamps=419.0
new line.52873736 phases=3 bus1=80438775001990.1.2.3 bus2=80438765001990.1.2.3
~ r1=0.195 x1=0.4 length=0.029812 units=km normamps=419.0
new line.52873737 phases=3 bus1=80438785001990.1.2.3 bus2=80438775001990.1.2.3
~ r1=0.195 x1=0.4 length=0.006579 units=km normamps=419.0
new line.52873738 phases=3 bus1=80438805001990.1.2.3 bus2=80438795001990.1.2.3
~ r1=0.195 x1=0.4 length=0.04169 units=km normamps=419.0
new line.52873739 phases=3 bus1=80438815001990.1.2.3 bus2=80438805001990.1.2.3
~ r1=0.195 x1=0.4 length=0.028639 units=km normamps=419.0
new line.52873740 phases=3 bus1=80438825001990.1.2.3 bus2=80438815001990.1.2.3
~ r1=0.195 x1=0.4 length=0.029112 units=km normamps=419.0
new line.52873741 phases=3 bus1=80438835001990.1.2.3 bus2=80438825001990.1.2.3
~ r1=0.195 x1=0.4 length=0.013735 units=km normamps=419.0
new line.52873742 phases=3 bus1=80438895001990.1.2.3 bus2=80438715001990.1.2.3
~ r1=0.195 x1=0.4 length=0.00987 units=km normamps=419.0
new line.52873743 phases=3 bus1=80438905001990.1.2.3 bus2=80438895001990.1.2.3
~ r1=0.195 x1=0.4 length=0.036438 units=km normamps=419.0
new line.52873744 phases=3 bus1=80438915001990.1.2.3 bus2=80438905001990.1.2.3
~ r1=0.195 x1=0.4 length=0.029629 units=km normamps=419.0
new line.52873745 phases=3 bus1=80438925001990.1.2.3 bus2=80438915001990.1.2.3
~ r1=0.195 x1=0.4 length=0.009262 units=km normamps=419.0
new line.52873746 phases=3 bus1=80438935001990.1.2.3 bus2=80438915001990.1.2.3
~ r1=0.195 x1=0.4 length=0.034643 units=km normamps=419.0
new line.52873747 phases=3 bus1=80438975001990.1.2.3 bus2=80438935001990.1.2.3
~ r1=0.195 x1=0.4 length=0.018856 units=km normamps=419.0
new line.52873748 phases=3 bus1=80438985001990.1.2.3 bus2=80438975001990.1.2.3
~ r1=0.195 x1=0.4 length=0.03614 units=km normamps=419.0
new line.52873749 phases=3 bus1=80438995001990.1.2.3 bus2=80438985001990.1.2.3
~ r1=0.195 x1=0.4 length=0.033334 units=km normamps=419.0
new line.52873750 phases=3 bus1=80439005001990.1.2.3 bus2=80438995001990B.1.2.3
~ r1=0.195 x1=0.4 length=0.026536 units=km normamps=419.0
new line.52873751 phases=3 bus1=80439015001990.1.2.3 bus2=80439005001990.1.2.3
~ r1=0.195 x1=0.4 length=0.006579 units=km normamps=419.0
new line.52873752 phases=3 bus1=80439025001990.1.2.3 bus2=80439005001990.1.2.3
~ r1=0.195 x1=0.4 length=0.008578 units=km normamps=419.0
new line.52873753 phases=3 bus1=80437695001990.1.2.3 bus2=80439025001990.1.2.3
~ r1=0.195 x1=0.4 length=0.04146 units=km normamps=419.0
new line.52873754 phases=3 bus1=80435975001990B.1.2.3 bus2=80439005001990.1.2.3
~ r1=0.195 x1=0.4 length=0.048339 units=km normamps=419.0
new line.52873755 phases=3 bus1=80439065001990.1.2.3 bus2=80438835001990.1.2.3
~ r1=0.195 x1=0.4 length=0.030439 units=km normamps=419.0
new line.52873756 phases=3 bus1=80439075001990.1.2.3 bus2=80439065001990.1.2.3
~ r1=0.195 x1=0.4 length=0.030342 units=km normamps=419.0
new line.52873757 phases=3 bus1=80438775001990.1.2.3 bus2=80439075001990.1.2.3
~ r1=0.195 x1=0.4 length=0.022704 units=km normamps=419.0
new line.52873758 phases=3 bus1=80439085001990.1.2.3 bus2=80438775001990.1.2.3
~ r1=0.195 x1=0.4 length=0.009414 units=km normamps=419.0
new line.52873759 phases=3 bus1=80436145001990.1.2.3 bus2=80440335001990.1.2.3
~ r1=0.195 x1=0.4 length=0.011175 units=km normamps=419.0
new line.52873760 phases=3 bus1=80440115001990.1.2.3 bus2=80440135001990.1.2.3
~ r1=0.365 x1=0.28 length=0.02804 units=km normamps=345.0
new line.52873761 phases=3 bus1=80440115001990.1.2.3 bus2=80440055001990.1.2.3
~ r1=0.365 x1=0.28 length=0.024711 units=km normamps=345.0
new line.52873762 phases=3 bus1=80440325001990.1.2.3 bus2=80439945001990.1.2.3
~ r1=0.188 x1=0.26 length=0.026247 units=km normamps=525.0
new line.52873763 phases=3 bus1=80440095001990.1.2.3 bus2=80440085001990.1.2.3
~ r1=0.188 x1=0.26 length=0.039182 units=km normamps=525.0
new line.52873764 phases=3 bus1=80440085001990.1.2.3 bus2=80440075001990.1.2.3
~ r1=0.188 x1=0.26 length=0.020705 units=km normamps=525.0
new line.52873765 phases=3 bus1=80440075001990.1.2.3 bus2=80440065001990.1.2.3
~ r1=0.188 x1=0.26 length=0.039338 units=km normamps=525.0
new line.52873766 phases=3 bus1=80440065001990.1.2.3 bus2=80435435001990.1.2.3
~ r1=0.188 x1=0.26 length=0.022704 units=km normamps=525.0
new line.52873768 phases=3 bus1=80440245001990.1.2.3 bus2=80440255001990.1.2.3
~ r1=0.195 x1=0.4 length=0.045657 units=km normamps=419.0
new line.52873769 phases=3 bus1=80440255001990.1.2.3 bus2=80440265001990.1.2.3
~ r1=0.195 x1=0.4 length=0.047082 units=km normamps=419.0
new line.52873771 phases=3 bus1=80440265001990.1.2.3 bus2=80440285001990.1.2.3
~ r1=0.195 x1=0.4 length=0.045407 units=km normamps=419.0
new line.52873772 phases=3 bus1=80440285001990.1.2.3 bus2=80440295001990.1.2.3
~ r1=0.195 x1=0.4 length=0.039152 units=km normamps=419.0
new line.52873773 phases=3 bus1=80440295001990.1.2.3 bus2=80440305001990.1.2.3
~ r1=0.195 x1=0.4 length=0.042638 units=km normamps=419.0
new line.52873775 phases=3 bus1=80440305001990.1.2.3 bus2=80435985001990.1.2.3
~ r1=0.195 x1=0.4 length=0.057224 units=km normamps=419.0
new line.52873776 phases=3 bus1=80435965001990.1.2.3 bus2=80435985001990B.1.2.3
~ r1=0.975 x1=0.47 length=0.013431 units=km normamps=152.0
new line.52873777 phases=3 bus1=80435565001990.1.2.3 bus2=80435575001990.1.2.3
~ r1=0.732 x1=0.31 length=0.033473 units=km normamps=225.0
new line.52873778 phases=3 bus1=80435475001990B.1.2.3 bus2=80435555001990.1.2.3
~ r1=0.732 x1=0.31 length=0.033005 units=km normamps=225.0
new line.52873779 phases=3 bus1=80435555001990.1.2.3 bus2=80435565001990.1.2.3
~ r1=0.732 x1=0.31 length=0.046626 units=km normamps=225.0
new line.52873780 phases=3 bus1=80439885001990.1.2.3 bus2=80439875001990.1.2.3
~ r1=0.188 x1=0.26 length=0.021882 units=km normamps=525.0
new line.52873783 phases=3 bus1=80439855001990.1.2.3 bus2=80439965001990.1.2.3
~ r1=0.188 x1=0.26 length=0.029841 units=km normamps=525.0
new line.52873784 phases=3 bus1=80439965001990.1.2.3 bus2=80439975001990.1.2.3
~ r1=0.188 x1=0.26 length=0.023824 units=km normamps=525.0
new line.52873786 phases=3 bus1=80440035001990.1.2.3 bus2=80439995001990.1.2.3
~ r1=0.188 x1=0.26 length=0.038489 units=km normamps=525.0
new line.52873787 phases=3 bus1=80439995001990.1.2.3 bus2=80440005001990.1.2.3
~ r1=0.188 x1=0.26 length=0.012354 units=km normamps=525.0
new line.52873788 phases=3 bus1=80440005001990.1.2.3 bus2=80440045001990.1.2.3
~ r1=0.188 x1=0.26 length=0.04242 units=km normamps=525.0
new line.52873789 phases=3 bus1=80440045001990.1.2.3 bus2=80440055001990.1.2.3
~ r1=0.188 x1=0.26 length=0.024584 units=km normamps=525.0
new line.52873790 phases=3 bus1=80440055001990.1.2.3 bus2=80440095001990.1.2.3
~ r1=0.188 x1=0.26 length=0.040102 units=km normamps=525.0
new line.52873791 phases=3 bus1=80439895001990.1.2.3 bus2=80439885001990.1.2.3
~ r1=0.188 x1=0.26 length=0.003159 units=km normamps=525.0
new line.52873792 phases=3 bus1=80439905001990.1.2.3 bus2=80439895001990.1.2.3
~ r1=0.188 x1=0.26 length=0.005143 units=km normamps=525.0
new line.52873793 phases=3 bus1=80439935001990.1.2.3 bus2=80439925001990.1.2.3
~ r1=0.188 x1=0.26 length=0.006672 units=km normamps=525.0
new line.52873794 phases=3 bus1=80439925001990.1.2.3 bus2=80439915001990.1.2.3
~ r1=0.188 x1=0.26 length=0.006334 units=km normamps=525.0
new line.52873795 phases=3 bus1=80439915001990.1.2.3 bus2=80439905001990.1.2.3
~ r1=0.188 x1=0.26 length=0.009172 units=km normamps=525.0
new line.52873796 phases=3 bus1=80439955001990.1.2.3 bus2=80439935001990.1.2.3
~ r1=0.188 x1=0.26 length=0.011112 units=km normamps=525.0
new line.52873797 phases=3 bus1=80439945001990.1.2.3 bus2=80439955001990.1.2.3
~ r1=0.188 x1=0.26 length=0.006692 units=km normamps=525.0
new line.52873798 phases=3 bus1=80435445001990.1.2.3 bus2=80435405001990B.1.2.3
~ r1=0.195 x1=0.4 length=0.039499 units=km normamps=419.0
new line.52874491 phases=3 bus1=80446775001991.1.2.3 bus2=80446765001991.1.2.3
~ r1=1.551 x1=0.49 length=0.017141 units=km normamps=114.0
new line.52874492 phases=3 bus1=80446785001991B.1.2.3 bus2=80446775001991.1.2.3
~ r1=1.551 x1=0.49 length=0.019103 units=km normamps=114.0
new line.52874493 phases=3 bus1=80446695001991B.1.2.3 bus2=80446795001991.1.2.3
~ r1=1.564 x1=0.51 length=0.019401 units=km normamps=120.0
new line.52874494 phases=3 bus1=80444315001991.1.2.3 bus2=80444345001991.1.2.3
~ r1=0.195 x1=0.4 length=0.015201 units=km normamps=419.0
new line.52874495 phases=3 bus1=80444345001991.1.2.3 bus2=94777545001991.1.2.3
~ r1=0.195 x1=0.4 length=0.003563 units=km normamps=419.0
new line.52874496 phases=3 bus1=80446805001991.1.2.3 bus2=80446815001991.1.2.3
~ r1=2.389 x1=0.52 length=0.004377 units=km normamps=90.0
new line.52874497 phases=3 bus1=80446825001991.1.2.3 bus2=80446815001991.1.2.3
~ r1=2.389 x1=0.52 length=0.008955 units=km normamps=90.0
new line.52874498 phases=3 bus1=80446815001991.1.2.3 bus2=80446835001991.1.2.3
~ r1=2.389 x1=0.52 length=0.010676 units=km normamps=90.0
new line.52874499 phases=3 bus1=80446845001991.1.2.3 bus2=94775725001991.1.2.3
~ r1=0.195 x1=0.4 length=0.007991 units=km normamps=419.0
new line.52874501 phases=3 bus1=80446865001991.1.2.3 bus2=80446845001991.1.2.3
~ r1=0.195 x1=0.4 length=0.011023 units=km normamps=419.0
new line.52874502 phases=3 bus1=80446875001991.1.2.3 bus2=80446865001991.1.2.3
~ r1=0.195 x1=0.4 length=0.00567 units=km normamps=419.0
new line.52874503 phases=3 bus1=80446885001991.1.2.3 bus2=80446795001991.1.2.3
~ r1=1.564 x1=0.51 length=0.009867 units=km normamps=120.0
new line.52874504 phases=3 bus1=80446895001991.1.2.3 bus2=80446865001991.1.2.3
~ r1=0.195 x1=0.4 length=0.015874 units=km normamps=419.0
new line.52874505 phases=3 bus1=80446905001991.1.2.3 bus2=80446745001991.1.2.3
~ r1=1.551 x1=0.49 length=0.010841 units=km normamps=114.0
new line.52874506 phases=3 bus1=80446915001991.1.2.3 bus2=80446925001991.1.2.3
~ r1=0.195 x1=0.4 length=0.013293 units=km normamps=419.0
new line.52874507 phases=3 bus1=80446925001991.1.2.3 bus2=80446895001991.1.2.3
~ r1=0.195 x1=0.4 length=0.017473 units=km normamps=419.0
new line.52874508 phases=3 bus1=80446925001991.1.2.3 bus2=80446935001991.1.2.3
~ r1=0.613 x1=0.45 length=0.008796 units=km normamps=203.0
new line.52874509 phases=3 bus1=80446935001991B.1.2.3 bus2=80446945001991.1.2.3
~ r1=1.551 x1=0.49 length=0.028134 units=km normamps=114.0
new line.52874510 phases=3 bus1=80446945001991.1.2.3 bus2=80446955001991.1.2.3
~ r1=1.551 x1=0.49 length=0.030752 units=km normamps=114.0
new line.52874511 phases=3 bus1=80446965001991.1.2.3 bus2=80446955001991.1.2.3
~ r1=1.551 x1=0.49 length=0.007608 units=km normamps=114.0
new line.52874512 phases=3 bus1=80446955001991.1.2.3 bus2=80446975001991.1.2.3
~ r1=1.551 x1=0.49 length=0.028795 units=km normamps=114.0
new line.52874513 phases=3 bus1=80446975001991.1.2.3 bus2=80446285001991.1.2.3
~ r1=1.551 x1=0.49 length=0.031365 units=km normamps=114.0
new line.52874514 phases=3 bus1=80446985001991.1.2.3 bus2=80446915001991.1.2.3
~ r1=0.195 x1=0.4 length=0.03556 units=km normamps=419.0
new line.52874515 phases=3 bus1=80442905001991.1.2.3 bus2=80442915001991.1.2.3
~ r1=0.195 x1=0.4 length=0.038492 units=km normamps=419.0
new line.52874516 phases=3 bus1=80442915001991.1.2.3 bus2=80442925001991.1.2.3
~ r1=0.195 x1=0.4 length=0.031749 units=km normamps=419.0
new line.52874517 phases=3 bus1=80442925001991.1.2.3 bus2=80442935001991.1.2.3
~ r1=0.195 x1=0.4 length=0.036531 units=km normamps=419.0
new line.52874518 phases=3 bus1=80442935001991.1.2.3 bus2=80443015001991.1.2.3
~ r1=0.195 x1=0.4 length=0.037221 units=km normamps=419.0
new line.52874519 phases=3 bus1=80443015001991.1.2.3 bus2=80443025001991.1.2.3
~ r1=0.195 x1=0.4 length=0.025564 units=km normamps=419.0
new line.52874520 phases=3 bus1=80443045001991.1.2.3 bus2=80443055001991B.1.2.3
~ r1=0.195 x1=0.4 length=0.037506 units=km normamps=419.0
new line.52874521 phases=3 bus1=80443025001991.1.2.3 bus2=80443045001991.1.2.3
~ r1=0.195 x1=0.4 length=0.026547 units=km normamps=419.0
new line.52874522 phases=3 bus1=80443055001991.1.2.3 bus2=80443065001991.1.2.3
~ r1=0.195 x1=0.4 length=0.036954 units=km normamps=419.0
new line.52874523 phases=3 bus1=80443075001991.1.2.3 bus2=80443065001991B.1.2.3
~ r1=1.551 x1=0.49 length=0.019654 units=km normamps=114.0
new line.52874524 phases=3 bus1=80443085001991.1.2.3 bus2=80443075001991.1.2.3
~ r1=1.551 x1=0.49 length=0.028058 units=km normamps=114.0
new line.52874526 phases=3 bus1=80443105001991B.1.2.3 bus2=80443115001991.1.2.3
~ r1=0.195 x1=0.4 length=0.027816 units=km normamps=419.0
new line.52874527 phases=3 bus1=80443065001991.1.2.3 bus2=80443105001991.1.2.3
~ r1=0.195 x1=0.4 length=0.033991 units=km normamps=419.0
new line.52874528 phases=3 bus1=80443175001991.1.2.3 bus2=94724625001991.1.2.3
~ r1=0.195 x1=0.4 length=0.00856 units=km normamps=419.0
new line.52874529 phases=3 bus1=80441225001991.1.2.3 bus2=80443175001991.1.2.3
~ r1=0.195 x1=0.4 length=0.03944 units=km normamps=419.0
new line.52874530 phases=3 bus1=80443115001991.1.2.3 bus2=80443185001991.1.2.3
~ r1=0.195 x1=0.4 length=0.041426 units=km normamps=419.0
new line.52874531 phases=3 bus1=80443165001991.1.2.3 bus2=80443185001991.1.2.3
~ r1=0.195 x1=0.4 length=0.012881 units=km normamps=419.0
new line.52874532 phases=3 bus1=80443185001991.1.2.3 bus2=80442605001991.1.2.3
~ r1=0.195 x1=0.4 length=0.008432 units=km normamps=419.0
new line.52874533 phases=3 bus1=80443185001991.1.2.3 bus2=80443195001991.1.2.3
~ r1=0.195 x1=0.4 length=0.024804 units=km normamps=419.0
new line.52874534 phases=3 bus1=80443325001991.1.2.3 bus2=80443335001991.1.2.3
~ r1=0.975 x1=0.47 length=0.025222 units=km normamps=152.0
new line.52874535 phases=3 bus1=80443355001991.1.2.3 bus2=80443335001991.1.2.3
~ r1=0.975 x1=0.47 length=0.037458 units=km normamps=152.0
new line.52874536 phases=3 bus1=80443365001991.1.2.3 bus2=80443375001991.1.2.3
~ r1=0.975 x1=0.47 length=0.038492 units=km normamps=152.0
new line.52874537 phases=3 bus1=80443375001991.1.2.3 bus2=80443425001991.1.2.3
~ r1=0.975 x1=0.47 length=0.031367 units=km normamps=152.0
new line.52874538 phases=3 bus1=80443425001991.1.2.3 bus2=80443435001991.1.2.3
~ r1=0.975 x1=0.47 length=0.030506 units=km normamps=152.0
new line.52874539 phases=3 bus1=80443435001991.1.2.3 bus2=80443445001991.1.2.3
~ r1=0.975 x1=0.47 length=0.026841 units=km normamps=152.0
new line.52874540 phases=3 bus1=80443445001991.1.2.3 bus2=80443455001991.1.2.3
~ r1=0.975 x1=0.47 length=0.035954 units=km normamps=152.0
new line.52874541 phases=3 bus1=80443465001991.1.2.3 bus2=80443475001991.1.2.3
~ r1=1.551 x1=0.49 length=0.021174 units=km normamps=114.0
new line.52874542 phases=3 bus1=80443355001991.1.2.3 bus2=80443365001991.1.2.3
~ r1=0.975 x1=0.47 length=0.043674 units=km normamps=152.0
new line.52874543 phases=3 bus1=80444265008500.1.2.3 bus2=80441005008500.1.2.3
~ r1=0.62 x1=0.47 length=0.019402 units=km normamps=230.0
new line.52874544 phases=3 bus1=80444275008500.1.2.3 bus2=80444265008500.1.2.3
~ r1=0.62 x1=0.47 length=0.010427 units=km normamps=230.0
new line.52874545 phases=3 bus1=80443705001991.1.2.3 bus2=80443695001991.1.2.3
~ r1=0.195 x1=0.4 length=0.025644 units=km normamps=419.0
new line.52874546 phases=3 bus1=80443715001991.1.2.3 bus2=80443465001991.1.2.3
~ r1=1.551 x1=0.49 length=0.041157 units=km normamps=114.0
new line.52874547 phases=3 bus1=80443725001991B.1.2.3 bus2=80443715001991.1.2.3
~ r1=0.975 x1=0.47 length=0.012813 units=km normamps=152.0
new line.52874548 phases=3 bus1=80443735001991.1.2.3 bus2=80443725001991.1.2.3
~ r1=0.195 x1=0.4 length=0.033729 units=km normamps=419.0
new line.52874549 phases=3 bus1=80443745001991.1.2.3 bus2=80443735001991.1.2.3
~ r1=0.195 x1=0.4 length=0.006634 units=km normamps=419.0
new line.52874550 phases=3 bus1=80443755001991.1.2.3 bus2=80443735001991.1.2.3
~ r1=0.195 x1=0.4 length=0.026547 units=km normamps=419.0
new line.52874551 phases=3 bus1=80443765001991.1.2.3 bus2=80443755001991.1.2.3
~ r1=0.195 x1=0.4 length=0.024584 units=km normamps=419.0
new line.52874552 phases=3 bus1=80443775001991.1.2.3 bus2=80443765001991.1.2.3
~ r1=1.551 x1=0.49 length=0.014631 units=km normamps=114.0
new line.52874553 phases=3 bus1=80443455001991.1.2.3 bus2=80443775001991B.1.2.3
~ r1=0.975 x1=0.47 length=0.035259 units=km normamps=152.0
new line.52874554 phases=3 bus1=80443765001991.1.2.3 bus2=80443785001991.1.2.3
~ r1=0.195 x1=0.4 length=0.037506 units=km normamps=419.0
new line.52874555 phases=3 bus1=80443795001991.1.2.3 bus2=80443785001991.1.2.3
~ r1=0.195 x1=0.4 length=0.031049 units=km normamps=419.0
new line.52874556 phases=3 bus1=80443805001991B.1.2.3 bus2=80443795001991.1.2.3
~ r1=0.195 x1=0.4 length=0.031749 units=km normamps=419.0
new line.52874557 phases=3 bus1=80443805001991.1.2.3 bus2=80442905001991.1.2.3
~ r1=0.195 x1=0.4 length=0.024616 units=km normamps=419.0
new line.52874558 phases=3 bus1=80444425001991.1.2.3 bus2=80447755001991.1.2.3
~ r1=1.551 x1=0.49 length=0.011969 units=km normamps=114.0
new line.52874559 phases=3 bus1=80443725001991.1.2.3 bus2=96894955001991.1.2.3
~ r1=0.195 x1=0.4 length=0.017283 units=km normamps=419.0
new line.52874560 phases=3 bus1=80443905001991.1.2.3 bus2=80443705001991B.1.2.3
~ r1=0.195 x1=0.4 length=0.071498 units=km normamps=419.0
new line.52874561 phases=3 bus1=80440615001991.1.2.3 bus2=80440625001991.1.2.3
~ r1=1.551 x1=0.49 length=0.032148 units=km normamps=114.0
new line.52874562 phases=3 bus1=80440635001991.1.2.3 bus2=80440625001991.1.2.3
~ r1=1.551 x1=0.49 length=0.03292 units=km normamps=114.0
new line.52874563 phases=3 bus1=80440675001991B.1.2.3 bus2=80440635001991.1.2.3
~ r1=1.551 x1=0.49 length=0.024881 units=km normamps=114.0
new line.52874564 phases=3 bus1=80440695001991.1.2.3 bus2=80440725001991.1.2.3
~ r1=0.975 x1=0.47 length=0.023946 units=km normamps=152.0
new line.52874565 phases=3 bus1=80440735001991.1.2.3 bus2=80440685001991.1.2.3
~ r1=1.551 x1=0.49 length=0.019082 units=km normamps=114.0
new line.52874566 phases=3 bus1=80440685001991.1.2.3 bus2=80440705001991.1.2.3
~ r1=1.551 x1=0.49 length=0.006619 units=km normamps=114.0
new line.52874567 phases=3 bus1=80440705001991.1.2.3 bus2=80440695001991.1.2.3
~ r1=0.975 x1=0.47 length=0.009904 units=km normamps=152.0
new line.52874568 phases=3 bus1=80440745001991.1.2.3 bus2=80440705001991.1.2.3
~ r1=0.975 x1=0.47 length=0.025672 units=km normamps=152.0
new line.52874569 phases=3 bus1=80440675001991.1.2.3 bus2=80440705001991.1.2.3
~ r1=1.551 x1=0.49 length=0.035303 units=km normamps=114.0
new line.52874570 phases=3 bus1=80440955008500.1.2.3 bus2=80440925008500.1.2.3
~ r1=1.551 x1=0.49 length=0.029774 units=km normamps=114.0
new line.52874571 phases=3 bus1=80440965008500.1.2.3 bus2=80440955008500.1.2.3
~ r1=1.551 x1=0.49 length=0.029199 units=km normamps=114.0
new line.52874572 phases=3 bus1=80440925008500.1.2.3 bus2=80440975008500.1.2.3
~ r1=1.551 x1=0.49 length=0.027072 units=km normamps=114.0
new line.52874573 phases=3 bus1=80440985008500.1.2.3 bus2=80440975008500.1.2.3
~ r1=1.551 x1=0.49 length=0.00735 units=km normamps=114.0
new line.52874574 phases=3 bus1=80440995008500.1.2.3 bus2=80440955008500.1.2.3
~ r1=0.975 x1=0.47 length=0.030762 units=km normamps=152.0
new line.52874575 phases=3 bus1=80441005008500.1.2.3 bus2=80440995008500.1.2.3
~ r1=0.975 x1=0.47 length=0.032017 units=km normamps=152.0
new line.52874576 phases=3 bus1=80441155001991.1.2.3 bus2=80441145001991.1.2.3
~ r1=0.975 x1=0.47 length=0.026547 units=km normamps=152.0
new line.52874577 phases=3 bus1=80441165001991.1.2.3 bus2=80441155001991.1.2.3
~ r1=0.975 x1=0.47 length=0.033008 units=km normamps=152.0
new line.52874578 phases=3 bus1=80441175001991.1.2.3 bus2=80441165001991.1.2.3
~ r1=0.975 x1=0.47 length=0.007608 units=km normamps=152.0
new line.52874579 phases=3 bus1=80441195001991B.1.2.3 bus2=80441145001991.1.2.3
~ r1=0.975 x1=0.47 length=0.028522 units=km normamps=152.0
new line.52874580 phases=3 bus1=80441195001991.1.2.3 bus2=80441205001991.1.2.3
~ r1=0.195 x1=0.4 length=0.033727 units=km normamps=419.0
new line.52874581 phases=3 bus1=80441205001991.1.2.3 bus2=80441215001991.1.2.3
~ r1=0.195 x1=0.4 length=0.048022 units=km normamps=419.0
new line.52874582 phases=3 bus1=80441215001991.1.2.3 bus2=80441225001991.1.2.3
~ r1=0.195 x1=0.4 length=0.033401 units=km normamps=419.0
new line.52874583 phases=3 bus1=80440735001991.1.2.3 bus2=80441955001991.1.2.3
~ r1=1.551 x1=0.49 length=0.020142 units=km normamps=114.0
new line.52874584 phases=3 bus1=80441965001991.1.2.3 bus2=80441955001991.1.2.3
~ r1=1.551 x1=0.49 length=0.039129 units=km normamps=114.0
new line.52874585 phases=3 bus1=80441975001991.1.2.3 bus2=80441965001991.1.2.3
~ r1=1.551 x1=0.49 length=0.040696 units=km normamps=114.0
new line.52874586 phases=3 bus1=80441985001991.1.2.3 bus2=80441975001991.1.2.3
~ r1=1.551 x1=0.49 length=0.030775 units=km normamps=114.0
new line.52874587 phases=3 bus1=80441995001991.1.2.3 bus2=80441985001991.1.2.3
~ r1=1.551 x1=0.49 length=0.038562 units=km normamps=114.0
new line.52874588 phases=3 bus1=80441995001991.1.2.3 bus2=80442005001991.1.2.3
~ r1=1.551 x1=0.49 length=0.037067 units=km normamps=114.0
new line.52874589 phases=3 bus1=80442015001991B.1.2.3 bus2=80442005001991.1.2.3
~ r1=1.551 x1=0.49 length=0.026346 units=km normamps=114.0
new line.52874590 phases=3 bus1=80442025001991B.1.2.3 bus2=80442035001991.1.2.3
~ r1=1.551 x1=0.49 length=0.034722 units=km normamps=114.0
new line.52874591 phases=3 bus1=80441245001991.1.2.3 bus2=80441195001991.1.2.3
~ r1=0.195 x1=0.4 length=0.048499 units=km normamps=419.0
new line.52874592 phases=3 bus1=80441265001991.1.2.3 bus2=80441245001991.1.2.3
~ r1=0.195 x1=0.4 length=0.027531 units=km normamps=419.0
new line.52874593 phases=3 bus1=80441275001991.1.2.3 bus2=80441265001991.1.2.3
~ r1=0.195 x1=0.4 length=0.033008 units=km normamps=419.0
new line.52874594 phases=3 bus1=80441285001991.1.2.3 bus2=80441275001991.1.2.3
~ r1=0.195 x1=0.4 length=0.034272 units=km normamps=419.0
new line.52874595 phases=3 bus1=80441295001991.1.2.3 bus2=80441285001991.1.2.3
~ r1=0.195 x1=0.4 length=0.030762 units=km normamps=419.0
new line.52874596 phases=3 bus1=80441305001991.1.2.3 bus2=80441295001991.1.2.3
~ r1=0.195 x1=0.4 length=0.038492 units=km normamps=419.0
new line.52874597 phases=3 bus1=80441315001991.1.2.3 bus2=80441305001991.1.2.3
~ r1=0.195 x1=0.4 length=0.033897 units=km normamps=419.0
new line.52874599 phases=3 bus1=80441385001991.1.2.3 bus2=80441315001991.1.2.3
~ r1=0.195 x1=0.4 length=0.01253 units=km normamps=419.0
new line.52874600 phases=3 bus1=80441395001991.1.2.3 bus2=80441385001991.1.2.3
~ r1=0.195 x1=0.4 length=0.032063 units=km normamps=419.0
new line.52874601 phases=3 bus1=80441405001991.1.2.3 bus2=80441395001991.1.2.3
~ r1=0.195 x1=0.4 length=0.030877 units=km normamps=419.0
new line.52874603 phases=3 bus1=80441425008500.1.2.3 bus2=80441415008500.1.2.3
~ r1=1.551 x1=0.49 length=0.006044 units=km normamps=114.0
new line.52874604 phases=3 bus1=80441435001991.1.2.3 bus2=80441445001991.1.2.3
~ r1=0.195 x1=0.4 length=0.028033 units=km normamps=419.0
new line.52874605 phases=3 bus1=80441445001991.1.2.3 bus2=80441455001991.1.2.3
~ r1=0.195 x1=0.4 length=0.029806 units=km normamps=419.0
new line.52874606 phases=3 bus1=80442175001991.1.2.3 bus2=80442165001991.1.2.3
~ r1=1.551 x1=0.49 length=0.008592 units=km normamps=114.0
new line.52874607 phases=3 bus1=80442185001991.1.2.3 bus2=80442195001991.1.2.3
~ r1=1.551 x1=0.49 length=0.011013 units=km normamps=114.0
new line.52874608 phases=3 bus1=80442175001991.1.2.3 bus2=80442185001991.1.2.3
~ r1=1.551 x1=0.49 length=0.008737 units=km normamps=114.0
new line.52874609 phases=3 bus1=80442195001991.1.2.3 bus2=80442205001991.1.2.3
~ r1=1.551 x1=0.49 length=0.010841 units=km normamps=114.0
new line.52874610 phases=3 bus1=80442045001991.1.2.3 bus2=80442055001991.1.2.3
~ r1=1.551 x1=0.49 length=0.018978 units=km normamps=114.0
new line.52874611 phases=3 bus1=80442055001991.1.2.3 bus2=80442185001991.1.2.3
~ r1=1.551 x1=0.49 length=0.013999 units=km normamps=114.0
new line.52874612 phases=3 bus1=80442185001991.1.2.3 bus2=80442065001991.1.2.3
~ r1=1.551 x1=0.49 length=0.009867 units=km normamps=114.0
new line.52874613 phases=3 bus1=80442395001991.1.2.3 bus2=80442035001991.1.2.3
~ r1=1.551 x1=0.49 length=0.036488 units=km normamps=114.0
new line.52874614 phases=3 bus1=80441505001991.1.2.3 bus2=80441455001991.1.2.3
~ r1=0.195 x1=0.4 length=0.055771 units=km normamps=419.0
new line.52874615 phases=3 bus1=80441515001991.1.2.3 bus2=80441505001991B.1.2.3
~ r1=0.975 x1=0.47 length=0.011753 units=km normamps=152.0
new line.52874616 phases=3 bus1=80441525001991.1.2.3 bus2=80441405001991.1.2.3
~ r1=0.195 x1=0.4 length=0.03742 units=km normamps=419.0
new line.52874617 phases=3 bus1=80441525001991B.1.2.3 bus2=80441535001991.1.2.3
~ r1=1.551 x1=0.49 length=0.030718 units=km normamps=114.0
new line.52874618 phases=3 bus1=80441545001991.1.2.3 bus2=80441535001991.1.2.3
~ r1=1.551 x1=0.49 length=0.035569 units=km normamps=114.0
new line.52874619 phases=3 bus1=80441565001991.1.2.3 bus2=80441545001991.1.2.3
~ r1=1.551 x1=0.49 length=0.044396 units=km normamps=114.0
new line.52874620 phases=3 bus1=80441575001991.1.2.3 bus2=80441565001991.1.2.3
~ r1=1.551 x1=0.49 length=0.033464 units=km normamps=114.0
new line.52874621 phases=3 bus1=80441505001991.1.2.3 bus2=88961965001991.1.2.3
~ r1=0.195 x1=0.4 length=0.015097 units=km normamps=419.0
new line.52874622 phases=3 bus1=80441705001991.1.2.3 bus2=80441525001991.1.2.3
~ r1=0.195 x1=0.4 length=0.024813 units=km normamps=419.0
new line.52874624 phases=3 bus1=80441725001991.1.2.3 bus2=80441515001991.1.2.3
~ r1=0.975 x1=0.47 length=0.039471 units=km normamps=152.0
new line.52874625 phases=3 bus1=80441735001991.1.2.3 bus2=80441725001991.1.2.3
~ r1=0.975 x1=0.47 length=0.033172 units=km normamps=152.0
new line.52874626 phases=3 bus1=80442405001991.1.2.3 bus2=80442395001991.1.2.3
~ r1=1.551 x1=0.49 length=0.034045 units=km normamps=114.0
new line.52874627 phases=3 bus1=80442415001991.1.2.3 bus2=80442405001991.1.2.3
~ r1=1.551 x1=0.49 length=0.035889 units=km normamps=114.0
new line.52874628 phases=3 bus1=80442555001991.1.2.3 bus2=80442545001991.1.2.3
~ r1=1.551 x1=0.49 length=0.039353 units=km normamps=114.0
new line.52874629 phases=3 bus1=80442565001991.1.2.3 bus2=80442555001991.1.2.3
~ r1=1.551 x1=0.49 length=0.034977 units=km normamps=114.0
new line.52874630 phases=3 bus1=80442575001991.1.2.3 bus2=80442565001991.1.2.3
~ r1=1.551 x1=0.49 length=0.011969 units=km normamps=114.0
new line.52874631 phases=3 bus1=80442585001991.1.2.3 bus2=80442575001991.1.2.3
~ r1=1.551 x1=0.49 length=0.014352 units=km normamps=114.0
new line.52874632 phases=3 bus1=80442595001991.1.2.3 bus2=80442585001991.1.2.3
~ r1=1.551 x1=0.49 length=0.025564 units=km normamps=114.0
new line.52874633 phases=3 bus1=80442605001991B.1.2.3 bus2=80442595001991.1.2.3
~ r1=1.551 x1=0.49 length=0.033308 units=km normamps=114.0
new line.52874634 phases=3 bus1=80442615001991.1.2.3 bus2=80442575001991.1.2.3
~ r1=1.551 x1=0.49 length=0.016158 units=km normamps=114.0
new line.52874635 phases=3 bus1=80445115001991.1.2.3 bus2=80445105001991.1.2.3
~ r1=0.195 x1=0.4 length=0.035883 units=km normamps=419.0
new line.52874636 phases=3 bus1=80445055001991.1.2.3 bus2=80445115001991.1.2.3
~ r1=0.195 x1=0.4 length=0.02967 units=km normamps=419.0
new line.52874637 phases=3 bus1=80447745001991.1.2.3 bus2=80439945001991.1.2.3
~ r1=0.188 x1=0.26 length=0.027685 units=km normamps=525.0
new line.52874638 phases=3 bus1=80447345001991.1.2.3 bus2=80447765001991.1.2.3
~ r1=1.551 x1=0.49 length=0.015873 units=km normamps=114.0
new line.52874639 phases=3 bus1=80447765001991.1.2.3 bus2=80447365001991.1.2.3
~ r1=1.551 x1=0.49 length=0.016518 units=km normamps=114.0
new line.52874640 phases=3 bus1=80447405001991.1.2.3 bus2=80447415001991.1.2.3
~ r1=1.551 x1=0.49 length=0.007003 units=km normamps=114.0
new line.52874642 phases=3 bus1=80447295001991.1.2.3 bus2=80447785001991.1.2.3
~ r1=0.613 x1=0.45 length=0.016355 units=km normamps=203.0
new line.52874644 phases=3 bus1=80446365001991.1.2.3 bus2=80446625001991.1.2.3
~ r1=0.195 x1=0.4 length=0.024066 units=km normamps=419.0
new line.52874645 phases=3 bus1=80446635001991.1.2.3 bus2=80446625001991.1.2.3
~ r1=0.195 x1=0.4 length=0.016145 units=km normamps=419.0
new line.52874646 phases=3 bus1=80446625001991.1.2.3 bus2=80446645001991.1.2.3
~ r1=0.195 x1=0.4 length=0.018659 units=km normamps=419.0
new line.52874647 phases=3 bus1=80444625001991B.1.2.3 bus2=80446985001991.1.2.3
~ r1=0.195 x1=0.4 length=0.033008 units=km normamps=419.0
new line.52874648 phases=3 bus1=80446995001991.1.2.3 bus2=80444635001991.1.2.3
~ r1=0.732 x1=0.31 length=0.035906 units=km normamps=225.0
new line.52874649 phases=3 bus1=80447005001991.1.2.3 bus2=80446995001991.1.2.3
~ r1=0.732 x1=0.31 length=0.009701 units=km normamps=225.0
new line.52874650 phases=3 bus1=80447065001991B.1.2.3 bus2=80447005001991.1.2.3
~ r1=0.732 x1=0.31 length=0.039461 units=km normamps=225.0
new line.52874651 phases=3 bus1=80447075001991.1.2.3 bus2=80447065001991.1.2.3
~ r1=2.389 x1=0.52 length=0.013719 units=km normamps=90.0
new line.52874652 phases=3 bus1=80446835001991.1.2.3 bus2=80447075001991.1.2.3
...